http://wiki.mandriva.com/fr/Code_Saturne
